$ REGION pid=1 name=skin
$ REGION pid=2 name=web
GRID,1,,0.0,0.0,0.0
GRID,2,,1.0,0.0,0.0
GRID,3,,1.0,1.0,0.0
GRID,4,,0.0,1.0,0.0
GRID,5,,2.0,0.0,0.0
GRID,6,,2.0,1.0,0.0
CQUAD4,1,1,1,2,3,4
CQUAD4,2,2,2,5,6,3
PSHELL,1,1,0.7
PSHELL,2,1,0.7
MAT1,1,7.0E10,,0.33,2700.0
ENDDATA
