$ MassTown gmsh BDF export
$ Placeholder MAT1/PSHELL/PSOLID cards are intended for downstream override.
CEND
BEGIN BULK
$ REGION pid=1 gmsh_id=1 kind=solid name=volume_1
MAT1,1,1.0,0.3,0.0
PSOLID,1,1
GRID,1,,0.0,0.0,0.0
GRID,2,,0.0,0.0,10.0
GRID,3,,50.0,0.0,10.0
GRID,4,,50.0,0.0,0.0
GRID,5,,50.0,10.0,10.0
GRID,6,,50.0,10.0,0.0
GRID,7,,0.0,10.0,10.0
GRID,8,,0.0,10.0,0.0
GRID,9,,0.0,0.0,5.0
GRID,10,,5.0,0.0,10.0
GRID,11,,10.0,0.0,10.0
GRID,12,,15.0,0.0,10.0
GRID,13,,20.0,0.0,10.0
GRID,14,,25.0,0.0,10.0
GRID,15,,30.0,0.0,10.0
GRID,16,,35.0,0.0,10.0
GRID,17,,40.0,0.0,10.0
GRID,18,,45.0,0.0,10.0
GRID,19,,50.0,0.0,5.0
GRID,20,,5.0,0.0,0.0
$ ... 79 like lines cut
CHEXA,1,1,1,9,53,20,52,72
+,91,73
CHEXA,2,1,52,72,91,73,8,41
+,71,50
CHEXA,3,1,20,53,54,21,73,91
+,92,74
CHEXA,4,1,73,91,92,74,50,71
+,70,49
CHEXA,5,1,21,54,55,22,74,92
+,93,75
CHEXA,6,1,74,92,93,75,49,70
+,69,48
CHEXA,7,1,22,55,56,23,75,93
+,94,76
CHEXA,8,1,75,93,94,76,48,69
+,68,47
CHEXA,9,1,23,56,57,24,76,94
+,95,77
CHEXA,10,1,76,94,95,77,47,68
+,67,46
CHEXA,11,1,24,57,58,25,77,95
+,96,78
CHEXA,12,1,77,95,96,78,46,67
+,66,45
CHEXA,13,1,25,58,59,26,78,96
+,97,79
CHEXA,14,1,78,96,97,79,45,66
+,65,44
CHEXA,15,1,26,59,60,27,79,97
+,98,80
CHEXA,16,1,79,97,98,80,44,65
+,64,43
CHEXA,17,1,27,60,61,28,80,98
+,99,81
CHEXA,18,1,80,98,99,81,43,64
+,63,42
CHEXA,19,1,28,61,19,4,81,99
+,62,31
CHEXA,20,1,81,99,62,31,42,63
+,30,6
$ ... 40 like lines cut
ENDDATA
